* NGSPICE file created from sky130_ef_ip__biasgen3.ext - technology: sky130A

.subckt sky130_fd_pr__nfet_g5v0d10v5_C3WBNQ a_n296_n522# a_n158_n300# a_n100_n388#
+ a_100_n300#
X0 a_100_n300# a_n100_n388# a_n158_n300# a_n296_n522# sky130_fd_pr__nfet_g5v0d10v5 ad=0.87 pd=6.58 as=0.87 ps=6.58 w=3 l=1
.ends

.subckt sky130_fd_pr__diode_pw2nd_05v5_FT76RK a_n147_n147# a_n45_n45#
X0 a_n147_n147# a_n45_n45# sky130_fd_pr__diode_pw2nd_05v5 perim=1.8e+06 area=2.025e+11
.ends

.subckt sky130_fd_pr__nfet_05v0_nvt_QRKT8P a_n296_n522# a_n158_n300# a_n100_n388#
+ a_100_n300#
X0 a_100_n300# a_n100_n388# a_n158_n300# a_n296_n522# sky130_fd_pr__nfet_05v0_nvt ad=0.87 pd=6.58 as=0.87 ps=6.58 w=3 l=1
.ends

.subckt sky130_fd_pr__nfet_g5v0d10v5_ZMKT8P a_n296_n522# a_n158_n300# a_n100_n388#
+ a_100_n300#
X0 a_100_n300# a_n100_n388# a_n158_n300# a_n296_n522# sky130_fd_pr__nfet_g5v0d10v5 ad=0.87 pd=6.58 as=0.87 ps=6.58 w=3 l=1
.ends

.subckt bias_nstack itail ena nbias avss vcasc
XXM12 avss avss nbias m1_3726_n2502# sky130_fd_pr__nfet_g5v0d10v5_C3WBNQ
Xsky130_fd_pr__diode_pw2nd_05v5_FT76RK_0 avss ena sky130_fd_pr__diode_pw2nd_05v5_FT76RK
XXM6 avss vcasc nbias m1_3726_n2502# sky130_fd_pr__nfet_05v0_nvt_QRKT8P
XXM7 avss vcasc ena itail sky130_fd_pr__nfet_g5v0d10v5_ZMKT8P
.ends

.subckt sky130_fd_pr__diode_pw2nd_05v5_FT76RJ a_n147_n147# a_n45_n45#
X0 a_n147_n147# a_n45_n45# sky130_fd_pr__diode_pw2nd_05v5 perim=1.8e+06 area=2.025e+11
.ends

.subckt sky130_fd_pr__res_high_po_0p35_P35QVK a_380_2984# a_5692_n3416# a_n3770_2984#
+ a_3866_2984# a_3202_n3416# a_n1446_n3416# a_n284_n3416# a_n616_2984# a_4696_n3416#
+ a_4198_2984# a_2206_n3416# a_n1114_2984# a_n4102_2984# a_n616_n3416# a_6190_n3416#
+ a_n6592_2984# a_2372_2984# a_n5762_n3416# a_5360_2984# a_214_2984# a_n3604_2984#
+ a_1210_n3416# a_5194_n3416# a_6522_n3416# a_n4766_n3416# a_1874_2984# a_4862_2984#
+ a_4198_n3416# a_5526_n3416# a_5194_2984# a_n6260_n3416# a_878_n3416# a_n3438_2984#
+ a_n2110_2984# a_n6426_2984# a_2206_2984# a_n118_n3416# a_n3770_n3416# a_4696_2984#
+ a_n5264_n3416# a_48_2984# a_4530_n3416# a_n2774_n3416# a_n1612_2984# a_n4600_2984#
+ a_n5928_2984# a_1708_2984# a_6024_n3416# a_n4268_n3416# a_2870_2984# a_3534_n3416#
+ a_712_2984# a_n1778_n3416# a_5028_2984# a_5028_n3416# a_n948_2984# a_2538_n3416#
+ a_6190_2984# a_n1446_2984# a_n3272_n3416# a_n4434_2984# a_n4600_n3416# a_3202_2984#
+ a_n948_n3416# a_5692_2984# a_380_n3416# a_546_2984# a_4032_n3416# a_n2276_n3416#
+ a_n3604_n3416# a_n3936_2984# a_1542_n3416# a_2704_2984# a_3036_n3416# a_712_n3416#
+ a_n2608_n3416# a_n4268_2984# a_3036_2984# a_6024_2984# a_5858_n3416# a_n1280_n3416#
+ a_n6592_n3416# a_n2442_2984# a_n4102_n3416# a_2538_2984# a_n5430_2984# a_2040_n3416#
+ a_5526_2984# a_1210_2984# a_n1612_n3416# a_n5596_n3416# a_4862_n3416# a_n450_n3416#
+ a_n1944_2984# a_n3106_n3416# a_n4932_2984# a_1044_n3416# a_n450_2984# a_3700_2984#
+ a_6356_n3416# a_214_n3416# a_n5928_n3416# a_n6722_n3546# a_3866_n3416# a_n2276_2984#
+ a_n5264_2984# a_1044_2984# a_4032_2984# a_n2110_n3416# a_n6094_n3416# a_n1778_2984#
+ a_n4766_2984# a_5360_n3416# a_n284_2984# a_3534_2984# a_n4932_n3416# a_6522_2984#
+ a_n1114_n3416# a_2870_n3416# a_n5098_n3416# a_n6426_n3416# a_878_2984# a_4364_n3416#
+ a_n5098_2984# a_n3936_n3416# a_n2940_2984# a_1874_n3416# a_3368_n3416# a_n3272_2984#
+ a_3368_2984# a_48_n3416# a_n6260_2984# a_2040_2984# a_6356_2984# a_n5430_n3416#
+ a_n2940_n3416# a_n118_2984# a_n2774_2984# a_n4434_n3416# a_n5762_2984# a_1542_2984#
+ a_2372_n3416# a_4530_2984# a_5858_2984# a_3700_n3416# a_n1944_n3416# a_n3438_n3416#
+ a_n6094_2984# a_n782_n3416# a_1376_n3416# a_n782_2984# a_2704_n3416# a_546_n3416#
+ a_n3106_2984# a_n1280_2984# a_n5596_2984# a_1376_2984# a_1708_n3416# a_4364_2984#
+ a_n2442_n3416# a_n2608_2984#
X0 a_n3936_2984# a_n3936_n3416# a_n6722_n3546# sky130_fd_pr__res_high_po_0p35 l=30
X1 a_n1612_2984# a_n1612_n3416# a_n6722_n3546# sky130_fd_pr__res_high_po_0p35 l=30
X2 a_n6592_2984# a_n6592_n3416# a_n6722_n3546# sky130_fd_pr__res_high_po_0p35 l=30
X3 a_n4434_2984# a_n4434_n3416# a_n6722_n3546# sky130_fd_pr__res_high_po_0p35 l=30
X4 a_48_2984# a_48_n3416# a_n6722_n3546# sky130_fd_pr__res_high_po_0p35 l=30
X5 a_2704_2984# a_2704_n3416# a_n6722_n3546# sky130_fd_pr__res_high_po_0p35 l=30
X6 a_4862_2984# a_4862_n3416# a_n6722_n3546# sky130_fd_pr__res_high_po_0p35 l=30
X7 a_3202_2984# a_3202_n3416# a_n6722_n3546# sky130_fd_pr__res_high_po_0p35 l=30
X8 a_5360_2984# a_5360_n3416# a_n6722_n3546# sky130_fd_pr__res_high_po_0p35 l=30
X9 a_5526_2984# a_5526_n3416# a_n6722_n3546# sky130_fd_pr__res_high_po_0p35 l=30
X10 a_n948_2984# a_n948_n3416# a_n6722_n3546# sky130_fd_pr__res_high_po_0p35 l=30
X11 a_n782_2984# a_n782_n3416# a_n6722_n3546# sky130_fd_pr__res_high_po_0p35 l=30
X12 a_6024_2984# a_6024_n3416# a_n6722_n3546# sky130_fd_pr__res_high_po_0p35 l=30
X13 a_n4932_2984# a_n4932_n3416# a_n6722_n3546# sky130_fd_pr__res_high_po_0p35 l=30
X14 a_1376_2984# a_1376_n3416# a_n6722_n3546# sky130_fd_pr__res_high_po_0p35 l=30
X15 a_878_2984# a_878_n3416# a_n6722_n3546# sky130_fd_pr__res_high_po_0p35 l=30
X16 a_4198_2984# a_4198_n3416# a_n6722_n3546# sky130_fd_pr__res_high_po_0p35 l=30
X17 a_n3770_2984# a_n3770_n3416# a_n6722_n3546# sky130_fd_pr__res_high_po_0p35 l=30
X18 a_n1446_2984# a_n1446_n3416# a_n6722_n3546# sky130_fd_pr__res_high_po_0p35 l=30
X19 a_3700_2984# a_3700_n3416# a_n6722_n3546# sky130_fd_pr__res_high_po_0p35 l=30
X20 a_n4268_2984# a_n4268_n3416# a_n6722_n3546# sky130_fd_pr__res_high_po_0p35 l=30
X21 a_n2110_2984# a_n2110_n3416# a_n6722_n3546# sky130_fd_pr__res_high_po_0p35 l=30
X22 a_1874_2984# a_1874_n3416# a_n6722_n3546# sky130_fd_pr__res_high_po_0p35 l=30
X23 a_6522_2984# a_6522_n3416# a_n6722_n3546# sky130_fd_pr__res_high_po_0p35 l=30
X24 a_2372_2984# a_2372_n3416# a_n6722_n3546# sky130_fd_pr__res_high_po_0p35 l=30
X25 a_2538_2984# a_2538_n3416# a_n6722_n3546# sky130_fd_pr__res_high_po_0p35 l=30
X26 a_4696_2984# a_4696_n3416# a_n6722_n3546# sky130_fd_pr__res_high_po_0p35 l=30
X27 a_3036_2984# a_3036_n3416# a_n6722_n3546# sky130_fd_pr__res_high_po_0p35 l=30
X28 a_5194_2984# a_5194_n3416# a_n6722_n3546# sky130_fd_pr__res_high_po_0p35 l=30
X29 a_n1944_2984# a_n1944_n3416# a_n6722_n3546# sky130_fd_pr__res_high_po_0p35 l=30
X30 a_n4766_2984# a_n4766_n3416# a_n6722_n3546# sky130_fd_pr__res_high_po_0p35 l=30
X31 a_n2608_2984# a_n2608_n3416# a_n6722_n3546# sky130_fd_pr__res_high_po_0p35 l=30
X32 a_n2442_2984# a_n2442_n3416# a_n6722_n3546# sky130_fd_pr__res_high_po_0p35 l=30
X33 a_214_2984# a_214_n3416# a_n6722_n3546# sky130_fd_pr__res_high_po_0p35 l=30
X34 a_n5430_2984# a_n5430_n3416# a_n6722_n3546# sky130_fd_pr__res_high_po_0p35 l=30
X35 a_n5264_2984# a_n5264_n3416# a_n6722_n3546# sky130_fd_pr__res_high_po_0p35 l=30
X36 a_n3106_2984# a_n3106_n3416# a_n6722_n3546# sky130_fd_pr__res_high_po_0p35 l=30
X37 a_2870_2984# a_2870_n3416# a_n6722_n3546# sky130_fd_pr__res_high_po_0p35 l=30
X38 a_n1280_2984# a_n1280_n3416# a_n6722_n3546# sky130_fd_pr__res_high_po_0p35 l=30
X39 a_1210_2984# a_1210_n3416# a_n6722_n3546# sky130_fd_pr__res_high_po_0p35 l=30
X40 a_3534_2984# a_3534_n3416# a_n6722_n3546# sky130_fd_pr__res_high_po_0p35 l=30
X41 a_5692_2984# a_5692_n3416# a_n6722_n3546# sky130_fd_pr__res_high_po_0p35 l=30
X42 a_5858_2984# a_5858_n3416# a_n6722_n3546# sky130_fd_pr__res_high_po_0p35 l=30
X43 a_712_2984# a_712_n3416# a_n6722_n3546# sky130_fd_pr__res_high_po_0p35 l=30
X44 a_4032_2984# a_4032_n3416# a_n6722_n3546# sky130_fd_pr__res_high_po_0p35 l=30
X45 a_6190_2984# a_6190_n3416# a_n6722_n3546# sky130_fd_pr__res_high_po_0p35 l=30
X46 a_6356_2984# a_6356_n3416# a_n6722_n3546# sky130_fd_pr__res_high_po_0p35 l=30
X47 a_n5928_2984# a_n5928_n3416# a_n6722_n3546# sky130_fd_pr__res_high_po_0p35 l=30
X48 a_n5762_2984# a_n5762_n3416# a_n6722_n3546# sky130_fd_pr__res_high_po_0p35 l=30
X49 a_n3604_2984# a_n3604_n3416# a_n6722_n3546# sky130_fd_pr__res_high_po_0p35 l=30
X50 a_n118_2984# a_n118_n3416# a_n6722_n3546# sky130_fd_pr__res_high_po_0p35 l=30
X51 a_n6426_2984# a_n6426_n3416# a_n6722_n3546# sky130_fd_pr__res_high_po_0p35 l=30
X52 a_n4102_2984# a_n4102_n3416# a_n6722_n3546# sky130_fd_pr__res_high_po_0p35 l=30
X53 a_n1778_2984# a_n1778_n3416# a_n6722_n3546# sky130_fd_pr__res_high_po_0p35 l=30
X54 a_4530_2984# a_4530_n3416# a_n6722_n3546# sky130_fd_pr__res_high_po_0p35 l=30
X55 a_n4600_2984# a_n4600_n3416# a_n6722_n3546# sky130_fd_pr__res_high_po_0p35 l=30
X56 a_n2276_2984# a_n2276_n3416# a_n6722_n3546# sky130_fd_pr__res_high_po_0p35 l=30
X57 a_n5098_2984# a_n5098_n3416# a_n6722_n3546# sky130_fd_pr__res_high_po_0p35 l=30
X58 a_n616_2984# a_n616_n3416# a_n6722_n3546# sky130_fd_pr__res_high_po_0p35 l=30
X59 a_1044_2984# a_1044_n3416# a_n6722_n3546# sky130_fd_pr__res_high_po_0p35 l=30
X60 a_3368_2984# a_3368_n3416# a_n6722_n3546# sky130_fd_pr__res_high_po_0p35 l=30
X61 a_546_2984# a_546_n3416# a_n6722_n3546# sky130_fd_pr__res_high_po_0p35 l=30
X62 a_n2940_2984# a_n2940_n3416# a_n6722_n3546# sky130_fd_pr__res_high_po_0p35 l=30
X63 a_n2774_2984# a_n2774_n3416# a_n6722_n3546# sky130_fd_pr__res_high_po_0p35 l=30
X64 a_380_2984# a_380_n3416# a_n6722_n3546# sky130_fd_pr__res_high_po_0p35 l=30
X65 a_n5596_2984# a_n5596_n3416# a_n6722_n3546# sky130_fd_pr__res_high_po_0p35 l=30
X66 a_n3438_2984# a_n3438_n3416# a_n6722_n3546# sky130_fd_pr__res_high_po_0p35 l=30
X67 a_n3272_2984# a_n3272_n3416# a_n6722_n3546# sky130_fd_pr__res_high_po_0p35 l=30
X68 a_n1114_2984# a_n1114_n3416# a_n6722_n3546# sky130_fd_pr__res_high_po_0p35 l=30
X69 a_n6260_2984# a_n6260_n3416# a_n6722_n3546# sky130_fd_pr__res_high_po_0p35 l=30
X70 a_n6094_2984# a_n6094_n3416# a_n6722_n3546# sky130_fd_pr__res_high_po_0p35 l=30
X71 a_1708_2984# a_1708_n3416# a_n6722_n3546# sky130_fd_pr__res_high_po_0p35 l=30
X72 a_1542_2984# a_1542_n3416# a_n6722_n3546# sky130_fd_pr__res_high_po_0p35 l=30
X73 a_2206_2984# a_2206_n3416# a_n6722_n3546# sky130_fd_pr__res_high_po_0p35 l=30
X74 a_3866_2984# a_3866_n3416# a_n6722_n3546# sky130_fd_pr__res_high_po_0p35 l=30
X75 a_2040_2984# a_2040_n3416# a_n6722_n3546# sky130_fd_pr__res_high_po_0p35 l=30
X76 a_4364_2984# a_4364_n3416# a_n6722_n3546# sky130_fd_pr__res_high_po_0p35 l=30
X77 a_5028_2984# a_5028_n3416# a_n6722_n3546# sky130_fd_pr__res_high_po_0p35 l=30
X78 a_n450_2984# a_n450_n3416# a_n6722_n3546# sky130_fd_pr__res_high_po_0p35 l=30
X79 a_n284_2984# a_n284_n3416# a_n6722_n3546# sky130_fd_pr__res_high_po_0p35 l=30
.ends

.subckt sky130_fd_sc_hvl__inv_2 A VGND VNB VPB VPWR Y
X0 VPWR A Y VPB sky130_fd_pr__pfet_g5v0d10v5 ad=0.4275 pd=3.57 as=0.21 ps=1.78 w=1.5 l=0.5
X1 Y A VGND VNB sky130_fd_pr__nfet_g5v0d10v5 ad=0.105 pd=1.03 as=0.21375 ps=2.07 w=0.75 l=0.5
X2 Y A VPWR VPB sky130_fd_pr__pfet_g5v0d10v5 ad=0.21 pd=1.78 as=0.4275 ps=3.57 w=1.5 l=0.5
X3 VGND A Y VNB sky130_fd_pr__nfet_g5v0d10v5 ad=0.21375 pd=2.07 as=0.105 ps=1.03 w=0.75 l=0.5
.ends

.subckt sky130_fd_sc_hvl__lsbuflv2hv_1 A LVPWR VGND VNB VPB VPWR X
X0 VGND a_404_1133# a_504_1221# VNB sky130_fd_pr__nfet_g5v0d10v5 ad=0.21 pd=1.78 as=0.21 ps=1.78 w=1.5 l=0.5
X1 a_504_1221# a_404_1133# VGND VNB sky130_fd_pr__nfet_g5v0d10v5 ad=0.21 pd=1.78 as=0.21 ps=1.78 w=1.5 l=0.5
X2 X a_1711_885# VPWR VPB sky130_fd_pr__pfet_g5v0d10v5 ad=0.3975 pd=3.53 as=0.24375 ps=1.825 w=1.5 l=0.5
X3 X a_1711_885# VGND VNB sky130_fd_pr__nfet_g5v0d10v5 ad=0.19875 pd=2.03 as=0.121875 ps=1.075 w=0.75 l=0.5
X4 VGND A a_404_1133# VNB sky130_fd_pr__nfet_01v8 ad=0.1176 pd=1.12 as=0.2478 ps=2.27 w=0.84 l=0.15
X5 a_1197_107# a_772_151# VGND VNB sky130_fd_pr__nfet_g5v0d10v5 ad=0.21 pd=1.78 as=0.21 ps=1.78 w=1.5 l=0.5
X6 VPWR a_1197_107# a_504_1221# VPB sky130_fd_pr__pfet_g5v0d10v5 ad=0.2142 pd=1.99 as=0.2142 ps=1.99 w=0.42 l=1
X7 a_504_1221# a_404_1133# VGND VNB sky130_fd_pr__nfet_g5v0d10v5 ad=0.3975 pd=3.53 as=0.21 ps=1.78 w=1.5 l=0.5
X8 a_1197_107# a_772_151# VGND VNB sky130_fd_pr__nfet_g5v0d10v5 ad=0.3975 pd=3.53 as=0.21 ps=1.78 w=1.5 l=0.5
X9 a_772_151# a_404_1133# VGND VNB sky130_fd_pr__nfet_01v8 ad=0.2478 pd=2.27 as=0.1176 ps=1.12 w=0.84 l=0.15
X10 a_504_1221# a_404_1133# VGND VNB sky130_fd_pr__nfet_g5v0d10v5 ad=0.21 pd=1.78 as=0.3975 ps=3.53 w=1.5 l=0.5
X11 VGND a_404_1133# a_504_1221# VNB sky130_fd_pr__nfet_g5v0d10v5 ad=0.21 pd=1.78 as=0.21 ps=1.78 w=1.5 l=0.5
X12 LVPWR A a_404_1133# LVPWR sky130_fd_pr__pfet_01v8_hvt ad=0.1176 pd=1.12 as=0.2478 ps=2.27 w=0.84 l=0.15
X13 VGND a_772_151# a_1197_107# VNB sky130_fd_pr__nfet_g5v0d10v5 ad=0.21 pd=1.78 as=0.21 ps=1.78 w=1.5 l=0.5
X14 VPWR a_504_1221# a_1711_885# VPB sky130_fd_pr__pfet_g5v0d10v5 ad=0.24375 pd=1.825 as=0.3975 ps=3.53 w=1.5 l=0.5
X15 VGND a_504_1221# a_1711_885# VNB sky130_fd_pr__nfet_g5v0d10v5 ad=0.121875 pd=1.075 as=0.19875 ps=2.03 w=0.75 l=0.5
X16 VGND a_772_151# a_1197_107# VNB sky130_fd_pr__nfet_g5v0d10v5 ad=0.21 pd=1.78 as=0.21 ps=1.78 w=1.5 l=0.5
X17 a_772_151# a_404_1133# LVPWR LVPWR sky130_fd_pr__pfet_01v8_hvt ad=0.2478 pd=2.27 as=0.1176 ps=1.12 w=0.84 l=0.15
X18 a_1197_107# a_772_151# VGND VNB sky130_fd_pr__nfet_g5v0d10v5 ad=0.21 pd=1.78 as=0.3975 ps=3.53 w=1.5 l=0.5
X19 VPWR a_504_1221# a_1197_107# VPB sky130_fd_pr__pfet_g5v0d10v5 ad=0.1113 pd=1.37 as=0.1365 ps=1.49 w=0.42 l=1
.ends

.subckt sky130_fd_pr__pfet_g5v0d10v5_G8LMTZ a_n158_n300# w_n362_n597# a_n100_n397#
+ a_100_n300#
X0 a_100_n300# a_n100_n397# a_n158_n300# w_n362_n597# sky130_fd_pr__pfet_g5v0d10v5 ad=0.87 pd=6.58 as=0.87 ps=6.58 w=3 l=1
.ends

.subckt sky130_fd_pr__pfet_g5v0d10v5_H75TTW a_n158_n300# w_n362_n597# a_n100_n397#
+ a_100_n300#
X0 a_100_n300# a_n100_n397# a_n158_n300# w_n362_n597# sky130_fd_pr__pfet_g5v0d10v5 ad=0.87 pd=6.58 as=0.87 ps=6.58 w=3 l=1
.ends

.subckt bias_pstack avss pcasc enb itail vcasc pbias avdd
XXM13 m1_2150_n1558# avdd pcasc vcasc sky130_fd_pr__pfet_g5v0d10v5_G8LMTZ
Xsky130_fd_pr__pfet_g5v0d10v5_G8LMTZ_0 itail avdd enb vcasc sky130_fd_pr__pfet_g5v0d10v5_G8LMTZ
Xsky130_fd_pr__diode_pw2nd_05v5_FT76RK_0 avss enb sky130_fd_pr__diode_pw2nd_05v5_FT76RK
Xsky130_fd_pr__pfet_g5v0d10v5_H75TTW_0 m1_2150_n1558# avdd pbias avdd sky130_fd_pr__pfet_g5v0d10v5_H75TTW
.ends

.subckt sky130_fd_pr__res_high_po_0p35_L4QTBM a_3451_2984# a_4447_n3416# a_795_2984#
+ a_1957_n3416# a_n5181_n3416# a_n201_2984# a_n2691_n3416# a_2953_2984# a_n2027_2984#
+ a_n4185_n3416# a_n5015_2984# a_n5513_n3416# a_3451_n3416# a_n1695_n3416# a_3285_2984#
+ a_n3189_n3416# a_n1529_2984# a_n4517_n3416# a_n4517_2984# a_2455_n3416# a_297_n3416#
+ a_n2691_2984# a_2787_2984# a_629_2984# a_n35_2984# a_n865_n3416# a_1459_n3416# a_629_n3416#
+ a_n2193_n3416# a_n3521_n3416# a_n3023_2984# a_n5015_n3416# a_3119_2984# a_n1197_n3416#
+ a_n2525_n3416# a_1293_2984# a_4281_2984# a_n4019_n3416# a_n2525_2984# a_n5513_2984#
+ a_n1529_n3416# a_3783_2984# a_4779_n3416# a_n367_n3416# a_n533_2984# a_n3023_n3416#
+ a_n2359_2984# a_131_n3416# a_n1031_2984# a_n5347_2984# a_1127_2984# a_4115_2984#
+ a_n2027_n3416# a_3783_n3416# a_5277_n3416# a_131_2984# a_n4849_n3416# a_n4849_2984#
+ a_n367_2984# a_n3521_2984# a_n5643_n3546# a_2787_n3416# a_3617_2984# a_1791_2984#
+ a_n1031_n3416# a_4281_n3416# a_n3853_n3416# a_1791_n3416# a_n3355_2984# a_n5347_n3416#
+ a_961_n3416# a_2123_2984# a_3285_n3416# a_4613_n3416# a_5111_2984# a_n201_n3416#
+ a_n2857_n3416# a_n2857_2984# a_2289_n3416# a_1625_2984# a_3617_n3416# a_4613_2984#
+ a_n4351_n3416# a_n699_n3416# a_n3189_2984# a_n1861_n3416# a_n865_2984# a_5111_n3416#
+ a_n3355_n3416# a_1293_n3416# a_2621_n3416# a_n1363_2984# a_n4351_2984# a_463_n3416#
+ a_1459_2984# a_4115_n3416# a_4447_2984# a_n2359_n3416# a_463_2984# a_1625_n3416#
+ a_n699_2984# a_n3853_2984# a_3119_n3416# a_3949_2984# a_2621_2984# a_n1197_2984#
+ a_n1363_n3416# a_n4185_2984# a_297_2984# a_2123_n3416# a_n3687_2984# a_2455_2984#
+ a_5443_2984# a_n533_n3416# a_4945_n3416# a_1127_n3416# a_n1861_2984# a_1957_2984#
+ a_3949_n3416# a_4945_2984# a_n35_n3416# a_n4019_2984# a_n4683_n3416# a_961_2984#
+ a_n2193_2984# a_2289_2984# a_n5181_2984# a_5277_2984# a_5443_n3416# a_n3687_n3416#
+ a_2953_n3416# a_n1695_2984# a_n4683_2984# a_795_n3416# a_4779_2984#
X0 a_n1197_2984# a_n1197_n3416# a_n5643_n3546# sky130_fd_pr__res_high_po_0p35 l=30
X1 a_3451_2984# a_3451_n3416# a_n5643_n3546# sky130_fd_pr__res_high_po_0p35 l=30
X2 a_3617_2984# a_3617_n3416# a_n5643_n3546# sky130_fd_pr__res_high_po_0p35 l=30
X3 a_4115_2984# a_4115_n3416# a_n5643_n3546# sky130_fd_pr__res_high_po_0p35 l=30
X4 a_2289_2984# a_2289_n3416# a_n5643_n3546# sky130_fd_pr__res_high_po_0p35 l=30
X5 a_n3521_2984# a_n3521_n3416# a_n5643_n3546# sky130_fd_pr__res_high_po_0p35 l=30
X6 a_n1695_2984# a_n1695_n3416# a_n5643_n3546# sky130_fd_pr__res_high_po_0p35 l=30
X7 a_4613_2984# a_4613_n3416# a_n5643_n3546# sky130_fd_pr__res_high_po_0p35 l=30
X8 a_n2359_2984# a_n2359_n3416# a_n5643_n3546# sky130_fd_pr__res_high_po_0p35 l=30
X9 a_n2193_2984# a_n2193_n3416# a_n5643_n3546# sky130_fd_pr__res_high_po_0p35 l=30
X10 a_5111_2984# a_5111_n3416# a_n5643_n3546# sky130_fd_pr__res_high_po_0p35 l=30
X11 a_n533_2984# a_n533_n3416# a_n5643_n3546# sky130_fd_pr__res_high_po_0p35 l=30
X12 a_2787_2984# a_2787_n3416# a_n5643_n3546# sky130_fd_pr__res_high_po_0p35 l=30
X13 a_1127_2984# a_1127_n3416# a_n5643_n3546# sky130_fd_pr__res_high_po_0p35 l=30
X14 a_3285_2984# a_3285_n3416# a_n5643_n3546# sky130_fd_pr__res_high_po_0p35 l=30
X15 a_629_2984# a_629_n3416# a_n5643_n3546# sky130_fd_pr__res_high_po_0p35 l=30
X16 a_n2857_2984# a_n2857_n3416# a_n5643_n3546# sky130_fd_pr__res_high_po_0p35 l=30
X17 a_n2691_2984# a_n2691_n3416# a_n5643_n3546# sky130_fd_pr__res_high_po_0p35 l=30
X18 a_463_2984# a_463_n3416# a_n5643_n3546# sky130_fd_pr__res_high_po_0p35 l=30
X19 a_n3355_2984# a_n3355_n3416# a_n5643_n3546# sky130_fd_pr__res_high_po_0p35 l=30
X20 a_n1031_2984# a_n1031_n3416# a_n5643_n3546# sky130_fd_pr__res_high_po_0p35 l=30
X21 a_n4019_2984# a_n4019_n3416# a_n5643_n3546# sky130_fd_pr__res_high_po_0p35 l=30
X22 a_n35_2984# a_n35_n3416# a_n5643_n3546# sky130_fd_pr__res_high_po_0p35 l=30
X23 a_1625_2984# a_1625_n3416# a_n5643_n3546# sky130_fd_pr__res_high_po_0p35 l=30
X24 a_3949_2984# a_3949_n3416# a_n5643_n3546# sky130_fd_pr__res_high_po_0p35 l=30
X25 a_2123_2984# a_2123_n3416# a_n5643_n3546# sky130_fd_pr__res_high_po_0p35 l=30
X26 a_3783_2984# a_3783_n3416# a_n5643_n3546# sky130_fd_pr__res_high_po_0p35 l=30
X27 a_4447_2984# a_4447_n3416# a_n5643_n3546# sky130_fd_pr__res_high_po_0p35 l=30
X28 a_961_2984# a_961_n3416# a_n5643_n3546# sky130_fd_pr__res_high_po_0p35 l=30
X29 a_4281_2984# a_4281_n3416# a_n5643_n3546# sky130_fd_pr__res_high_po_0p35 l=30
X30 a_n367_2984# a_n367_n3416# a_n5643_n3546# sky130_fd_pr__res_high_po_0p35 l=30
X31 a_n4517_2984# a_n4517_n3416# a_n5643_n3546# sky130_fd_pr__res_high_po_0p35 l=30
X32 a_n3853_2984# a_n3853_n3416# a_n5643_n3546# sky130_fd_pr__res_high_po_0p35 l=30
X33 a_n5015_2984# a_n5015_n3416# a_n5643_n3546# sky130_fd_pr__res_high_po_0p35 l=30
X34 a_n4351_2984# a_n4351_n3416# a_n5643_n3546# sky130_fd_pr__res_high_po_0p35 l=30
X35 a_297_2984# a_297_n3416# a_n5643_n3546# sky130_fd_pr__res_high_po_0p35 l=30
X36 a_2621_2984# a_2621_n3416# a_n5643_n3546# sky130_fd_pr__res_high_po_0p35 l=30
X37 a_4945_2984# a_4945_n3416# a_n5643_n3546# sky130_fd_pr__res_high_po_0p35 l=30
X38 a_n3189_2984# a_n3189_n3416# a_n5643_n3546# sky130_fd_pr__res_high_po_0p35 l=30
X39 a_5443_2984# a_5443_n3416# a_n5643_n3546# sky130_fd_pr__res_high_po_0p35 l=30
X40 a_n865_2984# a_n865_n3416# a_n5643_n3546# sky130_fd_pr__res_high_po_0p35 l=30
X41 a_1293_2984# a_1293_n3416# a_n5643_n3546# sky130_fd_pr__res_high_po_0p35 l=30
X42 a_1459_2984# a_1459_n3416# a_n5643_n3546# sky130_fd_pr__res_high_po_0p35 l=30
X43 a_n5513_2984# a_n5513_n3416# a_n5643_n3546# sky130_fd_pr__res_high_po_0p35 l=30
X44 a_795_2984# a_795_n3416# a_n5643_n3546# sky130_fd_pr__res_high_po_0p35 l=30
X45 a_n3687_2984# a_n3687_n3416# a_n5643_n3546# sky130_fd_pr__res_high_po_0p35 l=30
X46 a_n1529_2984# a_n1529_n3416# a_n5643_n3546# sky130_fd_pr__res_high_po_0p35 l=30
X47 a_n1363_2984# a_n1363_n3416# a_n5643_n3546# sky130_fd_pr__res_high_po_0p35 l=30
X48 a_n4185_2984# a_n4185_n3416# a_n5643_n3546# sky130_fd_pr__res_high_po_0p35 l=30
X49 a_n2027_2984# a_n2027_n3416# a_n5643_n3546# sky130_fd_pr__res_high_po_0p35 l=30
X50 a_1791_2984# a_1791_n3416# a_n5643_n3546# sky130_fd_pr__res_high_po_0p35 l=30
X51 a_1957_2984# a_1957_n3416# a_n5643_n3546# sky130_fd_pr__res_high_po_0p35 l=30
X52 a_n201_2984# a_n201_n3416# a_n5643_n3546# sky130_fd_pr__res_high_po_0p35 l=30
X53 a_2455_2984# a_2455_n3416# a_n5643_n3546# sky130_fd_pr__res_high_po_0p35 l=30
X54 a_4779_2984# a_4779_n3416# a_n5643_n3546# sky130_fd_pr__res_high_po_0p35 l=30
X55 a_3119_2984# a_3119_n3416# a_n5643_n3546# sky130_fd_pr__res_high_po_0p35 l=30
X56 a_5277_2984# a_5277_n3416# a_n5643_n3546# sky130_fd_pr__res_high_po_0p35 l=30
X57 a_n1861_2984# a_n1861_n3416# a_n5643_n3546# sky130_fd_pr__res_high_po_0p35 l=30
X58 a_n699_2984# a_n699_n3416# a_n5643_n3546# sky130_fd_pr__res_high_po_0p35 l=30
X59 a_n4849_2984# a_n4849_n3416# a_n5643_n3546# sky130_fd_pr__res_high_po_0p35 l=30
X60 a_n4683_2984# a_n4683_n3416# a_n5643_n3546# sky130_fd_pr__res_high_po_0p35 l=30
X61 a_n2525_2984# a_n2525_n3416# a_n5643_n3546# sky130_fd_pr__res_high_po_0p35 l=30
X62 a_131_2984# a_131_n3416# a_n5643_n3546# sky130_fd_pr__res_high_po_0p35 l=30
X63 a_n5347_2984# a_n5347_n3416# a_n5643_n3546# sky130_fd_pr__res_high_po_0p35 l=30
X64 a_n5181_2984# a_n5181_n3416# a_n5643_n3546# sky130_fd_pr__res_high_po_0p35 l=30
X65 a_n3023_2984# a_n3023_n3416# a_n5643_n3546# sky130_fd_pr__res_high_po_0p35 l=30
X66 a_2953_2984# a_2953_n3416# a_n5643_n3546# sky130_fd_pr__res_high_po_0p35 l=30
.ends

.subckt sky130_fd_sc_hvl__decap_4 VGND VNB VPB VPWR
X0 VGND VPWR VGND VNB sky130_fd_pr__nfet_g5v0d10v5 ad=0.19875 pd=2.03 as=0.4125 ps=4.1 w=0.75 l=1
X1 VPWR VGND VPWR VPB sky130_fd_pr__pfet_g5v0d10v5 ad=0.265 pd=2.53 as=0.55 ps=5.1 w=1 l=1
.ends

.subckt sky130_fd_sc_hvl__diode_2 DIODE VGND VNB VPB VPWR
X0 VNB DIODE sky130_fd_pr__diode_pw2nd_11v0 perim=3.16e+06 area=6.072e+11
.ends

.subckt sky130_fd_pr__nfet_05v0_nvt_F3TL5C a_100_n200# a_n292_n422# a_n158_n200# a_n100_n288#
X0 a_100_n200# a_n100_n288# a_n158_n200# a_n292_n422# sky130_fd_pr__nfet_05v0_nvt ad=0.58 pd=4.58 as=0.58 ps=4.58 w=2 l=1
.ends

.subckt sky130_fd_pr__nfet_g5v0d10v5_56WC32 a_100_n200# a_n158_n200# a_n332_n422#
+ a_n100_n288#
X0 a_100_n200# a_n100_n288# a_n158_n200# a_n332_n422# sky130_fd_pr__nfet_g5v0d10v5 ad=0.58 pd=4.58 as=0.58 ps=4.58 w=2 l=1
.ends

.subckt sky130_fd_pr__pfet_g5v0d10v5_QSDYAY w_n487_n497# a_29_n297# a_n287_n200# a_n229_n297#
+ a_229_n200# a_n29_n200#
X0 a_n29_n200# a_n229_n297# a_n287_n200# w_n487_n497# sky130_fd_pr__pfet_g5v0d10v5 ad=0.29 pd=2.29 as=0.58 ps=4.58 w=2 l=1
X1 a_229_n200# a_29_n297# a_n29_n200# w_n487_n497# sky130_fd_pr__pfet_g5v0d10v5 ad=0.58 pd=4.58 as=0.29 ps=2.29 w=2 l=1
.ends

.subckt sky130_fd_pr__nfet_g5v0d10v5_V5WCXY a_n287_n200# a_n487_n288# a_229_n200#
+ a_n545_n200# a_29_n288# a_487_n200# a_n29_n200# a_n229_n288# a_287_n288# a_n679_n422#
X0 a_487_n200# a_287_n288# a_229_n200# a_n679_n422# sky130_fd_pr__nfet_g5v0d10v5 ad=0.58 pd=4.58 as=0.29 ps=2.29 w=2 l=1
X1 a_n29_n200# a_n229_n288# a_n287_n200# a_n679_n422# sky130_fd_pr__nfet_g5v0d10v5 ad=0.29 pd=2.29 as=0.29 ps=2.29 w=2 l=1
X2 a_229_n200# a_29_n288# a_n29_n200# a_n679_n422# sky130_fd_pr__nfet_g5v0d10v5 ad=0.29 pd=2.29 as=0.29 ps=2.29 w=2 l=1
X3 a_n287_n200# a_n487_n288# a_n545_n200# a_n679_n422# sky130_fd_pr__nfet_g5v0d10v5 ad=0.29 pd=2.29 as=0.58 ps=4.58 w=2 l=1
.ends

.subckt bias_amp nbias ena inp inn out avss avdd
Xsky130_fd_pr__nfet_05v0_nvt_F3TL5C_0 m1_5615_3673# avss m1_7291_3557# ena sky130_fd_pr__nfet_05v0_nvt_F3TL5C
Xsky130_fd_pr__nfet_g5v0d10v5_56WC32_0 m1_7291_3557# avss avss nbias sky130_fd_pr__nfet_g5v0d10v5_56WC32
Xsky130_fd_pr__pfet_g5v0d10v5_QSDYAY_0 avdd m1_6016_4428# m1_6016_4428# m1_6016_4428#
+ out avdd sky130_fd_pr__pfet_g5v0d10v5_QSDYAY
Xsky130_fd_pr__nfet_g5v0d10v5_V5WCXY_0 m1_6016_4428# inp out m1_5615_3673# inn m1_5615_3673#
+ m1_5615_3673# inp inn avss sky130_fd_pr__nfet_g5v0d10v5_V5WCXY
.ends

.subckt sky130_fd_pr__cap_mim_m3_1_MQZGVK m3_n686_n2520# c1_n646_n2480#
X0 c1_n646_n2480# m3_n686_n2520# sky130_fd_pr__cap_mim_m3_1 l=5 w=5
X1 c1_n646_n2480# m3_n686_n2520# sky130_fd_pr__cap_mim_m3_1 l=5 w=5
X2 c1_n646_n2480# m3_n686_n2520# sky130_fd_pr__cap_mim_m3_1 l=5 w=5
X3 c1_n646_n2480# m3_n686_n2520# sky130_fd_pr__cap_mim_m3_1 l=5 w=5
.ends

.subckt bias_generator_fe snk_test0 src_test0 ref_sel_vbg ena vbg ref_in ena_snk_test0
+ ena_src_test0 dvdd bias_amp_0/out dvss avdd bias_amp_0/nbias bias_pstack_0[9]/pcasc
+ avss
Xbias_nstack_0[0] snk_test0 ena_test0_3v3 bias_amp_0/nbias avss bias_nstack_0[0]/vcasc
+ bias_nstack
Xbias_nstack_0[1] snk_test0 ena_test0_3v3 bias_amp_0/nbias avss bias_nstack_0[1]/vcasc
+ bias_nstack
Xbias_nstack_0[2] bias_nstack_0[9]/itail ena_3v3 bias_amp_0/nbias avss bias_amp_0/nbias
+ bias_nstack
Xbias_nstack_0[3] bias_nstack_0[9]/itail ena_3v3 bias_amp_0/nbias avss bias_amp_0/nbias
+ bias_nstack
Xbias_nstack_0[4] bias_nstack_0[9]/itail ena_3v3 bias_amp_0/nbias avss bias_amp_0/nbias
+ bias_nstack
Xbias_nstack_0[5] bias_nstack_0[9]/itail ena_3v3 bias_amp_0/nbias avss bias_amp_0/nbias
+ bias_nstack
Xbias_nstack_0[6] bias_nstack_0[9]/itail ena_3v3 bias_amp_0/nbias avss bias_amp_0/nbias
+ bias_nstack
Xbias_nstack_0[7] bias_nstack_0[9]/itail ena_3v3 bias_amp_0/nbias avss bias_amp_0/nbias
+ bias_nstack
Xbias_nstack_0[8] bias_nstack_0[9]/itail ena_3v3 bias_amp_0/nbias avss bias_amp_0/nbias
+ bias_nstack
Xbias_nstack_0[9] bias_nstack_0[9]/itail ena_3v3 bias_amp_0/nbias avss bias_amp_0/nbias
+ bias_nstack
Xbias_nstack_0[10] bias_nstack_0[9]/itail ena_3v3 bias_amp_0/nbias avss bias_amp_0/nbias
+ bias_nstack
Xbias_nstack_0[11] bias_nstack_0[9]/itail ena_3v3 bias_amp_0/nbias avss bias_amp_0/nbias
+ bias_nstack
Xbias_nstack_0[12] bias_nstack_0[9]/itail ena_3v3 bias_amp_0/nbias avss bias_amp_0/nbias
+ bias_nstack
Xbias_nstack_0[13] bias_nstack_0[9]/itail ena_3v3 bias_amp_0/nbias avss bias_amp_0/nbias
+ bias_nstack
Xbias_nstack_0[14] bias_nstack_0[9]/itail ena_3v3 bias_amp_0/nbias avss bias_amp_0/nbias
+ bias_nstack
Xbias_nstack_0[15] bias_nstack_0[9]/itail ena_3v3 bias_amp_0/nbias avss bias_amp_0/nbias
+ bias_nstack
Xbias_nstack_0[16] bias_nstack_0[9]/itail ena_3v3 bias_amp_0/nbias avss bias_amp_0/nbias
+ bias_nstack
Xbias_nstack_0[17] bias_nstack_0[9]/itail ena_3v3 bias_amp_0/nbias avss bias_amp_0/nbias
+ bias_nstack
Xbias_nstack_0[18] bias_nstack_0[9]/itail ena_3v3 bias_amp_0/nbias avss bias_amp_0/nbias
+ bias_nstack
Xbias_nstack_0[19] bias_nstack_0[9]/itail ena_3v3 bias_amp_0/nbias avss bias_amp_0/nbias
+ bias_nstack
Xbias_nstack_0[20] bias_nstack_0[9]/itail ena_3v3 bias_amp_0/nbias avss bias_amp_0/nbias
+ bias_nstack
Xbias_nstack_0[21] bias_nstack_0[9]/itail ena_3v3 bias_amp_0/nbias avss bias_amp_0/nbias
+ bias_nstack
Xbias_nstack_0[22] bias_amp_0/out enb_vbg_3v3 bias_amp_0/nbias avss bias_nstack_0[22]/vcasc
+ bias_nstack
Xsky130_fd_pr__diode_pw2nd_05v5_FT76RJ_0 avss vbg sky130_fd_pr__diode_pw2nd_05v5_FT76RJ
XXR2 m1_26761_7166# m1_31907_766# m1_22445_7166# m1_30081_7166# m1_29583_766# m1_24935_766#
+ m1_25931_766# m1_25765_7166# m1_30911_766# m1_30413_7166# m1_28587_766# m1_25101_7166#
+ m1_22113_7166# m1_25599_766# m1_32571_766# m1_19789_7166# m1_28753_7166# m1_20619_766#
+ m1_31741_7166# m1_26429_7166# m1_22777_7166# m1_27591_766# m1_31575_766# bias_nstack_0[9]/itail
+ m1_21615_766# m1_28089_7166# m1_31077_7166# m1_30579_766# m1_31907_766# m1_31409_7166#
+ m1_19955_766# m1_27259_766# m1_22777_7166# m1_24105_7166# m1_19789_7166# m1_28421_7166#
+ m1_26263_766# m1_22611_766# m1_31077_7166# m1_20951_766# m1_26429_7166# m1_30911_766#
+ m1_23607_766# m1_24769_7166# m1_21781_7166# m1_20453_7166# m1_28089_7166# m1_32239_766#
+ m1_21947_766# m1_29085_7166# m1_29915_766# m1_27093_7166# m1_24603_766# m1_31409_7166#
+ m1_31243_766# m1_25433_7166# m1_28919_766# m1_32405_7166# m1_24769_7166# m1_22943_766#
+ m1_21781_7166# m1_21615_766# m1_29417_7166# m1_25267_766# m1_32073_7166# m1_26595_766#
+ m1_26761_7166# m1_30247_766# m1_23939_766# m1_22611_766# m1_22445_7166# bias_pstack_0[9]/pcasc
+ m1_29085_7166# m1_29251_766# m1_26927_766# m1_23607_766# m1_22113_7166# m1_29417_7166#
+ m1_32405_7166# m1_32239_766# m1_24935_766# ref_in m1_23773_7166# m1_22279_766# m1_28753_7166#
+ m1_20785_7166# m1_28255_766# m1_31741_7166# m1_27425_7166# m1_24603_766# m1_20619_766#
+ m1_31243_766# m1_25931_766# m1_24437_7166# m1_23275_766# m1_21449_7166# m1_27259_766#
+ m1_25765_7166# m1_30081_7166# m1_32571_766# m1_26595_766# m1_20287_766# avss m1_30247_766#
+ m1_24105_7166# m1_21117_7166# m1_27425_7166# m1_30413_7166# m1_24271_766# m1_20287_766#
+ m1_24437_7166# m1_21449_7166# m1_31575_766# m1_26097_7166# m1_29749_7166# m1_21283_766#
+ m1_32737_7166# m1_25267_766# m1_29251_766# m1_21283_766# m1_19955_766# m1_27093_7166#
+ m1_30579_766# m1_21117_7166# m1_22279_766# m1_23441_7166# m1_28255_766# m1_29583_766#
+ m1_23109_7166# m1_29749_7166# m1_26263_766# m1_20121_7166# m1_28421_7166# m1_32737_7166#
+ m1_20951_766# m1_23275_766# m1_26097_7166# m1_23441_7166# m1_21947_766# m1_20453_7166#
+ m1_27757_7166# m1_28587_766# m1_30745_7166# m1_32073_7166# m1_29915_766# m1_24271_766#
+ m1_22943_766# m1_20121_7166# m1_25599_766# m1_27591_766# m1_25433_7166# m1_28919_766#
+ m1_26927_766# m1_23109_7166# m1_25101_7166# m1_20785_7166# m1_27757_7166# bias_pstack_0[9]/pcasc
+ m1_30745_7166# m1_23939_766# m1_23773_7166# sky130_fd_pr__res_high_po_0p35_P35QVK
Xsky130_fd_sc_hvl__inv_2_2 sky130_fd_sc_hvl__inv_2_2/A dvss dvss avdd avdd enb_test0_3v3
+ sky130_fd_sc_hvl__inv_2
Xsky130_fd_sc_hvl__lsbuflv2hv_1_0[0] ena_snk_test0 dvdd dvss dvss avdd avdd ena_test0_3v3
+ sky130_fd_sc_hvl__lsbuflv2hv_1
Xsky130_fd_sc_hvl__lsbuflv2hv_1_0[1] ena_src_test0 dvdd dvss dvss avdd avdd sky130_fd_sc_hvl__inv_2_2/A
+ sky130_fd_sc_hvl__lsbuflv2hv_1
Xsky130_fd_sc_hvl__lsbuflv2hv_1_0[2] ena dvdd dvss dvss avdd avdd ena_3v3 sky130_fd_sc_hvl__lsbuflv2hv_1
Xsky130_fd_sc_hvl__lsbuflv2hv_1_0[3] ref_sel_vbg dvdd dvss dvss avdd avdd ena_vbg_3v3
+ sky130_fd_sc_hvl__lsbuflv2hv_1