** sch_path: /home/tim/gits/sky130_ef_ip__biasgen/xschem/bias_generator_tb.sch
**.subckt bias_generator_tb
Vavdd avdd GND 3.3
Vvss avss GND 0
Vsource0 source0 GND 1
Vsource1 source1 GND 1.5
Vsink1 avdd sink1 1
Vsink0 avdd sink0 1.5
Vsel refsel GND 1.8
Vref ref GND DC
x2 avdd ena ena vbg ena ena ena ena net2 ena net3 net4 net5 source0 source1 net6 net7 net8 net9 net10 ena ena ena sink1 net11
+ net12 net13 net14 sink0 net15 ena ena ena ena ena avss ena net1 ena ena ena refsel ref avss bias_generator
Vbg vbg GND 1.2
Vena1 ena GND 1.8
Vdvdd net1 GND 1.8
* noconn #net9
* noconn #net7
* noconn #net2
* noconn #net10
* noconn #net8
* noconn #net4
* noconn #net5
* noconn #net3
* noconn #net6
* noconn #net13
* noconn #net14
* noconn #net15
* noconn #net12
* noconn #net11
**** begin user architecture code

.option savecurrents
.control
save all
dc Vref 2 3.3 0.1
print I(Vsink1) I(vsink0) I(vsource0) I(vsource1)
print I(v.x1.vmeas) I(v.x1.vmeas1) I(v.x1.vmeas2) I(v.x1.vmeas3) I(v.x1.vmeas4) I(v.x1.vmeas5)
.endc


.lib /usr/share/pdk/sky130A/libs.tech/combined/sky130.lib.spice tt
.include /usr/share/pdk/sky130A/libs.ref/sky130_fd_sc_hvl/spice/sky130_fd_sc_hvl.spice


**** end user architecture code
**.ends

* expanding   symbol:  bias_generator.sym # of pins=44
** sym_path: /home/tim/gits/sky130_ef_ip__biasgen/xschem/bias_generator.sym
** sch_path: /home/tim/gits/sky130_ef_ip__biasgen/xschem/bias_generator.sch
.subckt bias_generator avdd ena ena_snk_2000 vbg ena_src_50 ena_snk_3700 ena_src_100 ena_snk_5000_2 src_200_0 ena_src_200_2
+ src_10000_0 src_400 src_600 src_test0 src_test1 src_10000_1 src_100 src_200_2 src_50 src_200_1 ena_snk_5000_1 ena_src_200_1 ena_snk_5000_0
+ snk_test1 snk_5000_2 snk_5000_1 snk_2000 snk_3700 snk_test0 snk_5000_0 ena_src_200_0 ena_snk_test1 ena_src_400 ena_snk_test0 ena_src_600
+ avss ena_src_10000_1 dvdd ena_src_10000_0 ena_src_test1 ena_src_test0 ref_sel_vbg ref_in dvss
*.ipin ref_in
*.iopin avss
*.ipin ref_sel_vbg
*.iopin avdd
*.ipin ena_src_test0
*.ipin ena_snk_test0
*.iopin src_test0
*.iopin snk_test0
*.ipin ena_snk_test1
*.iopin snk_test1
*.ipin ena_src_test1
*.iopin src_test1
*.ipin ena_src_10000_0
*.iopin src_10000_0
*.ipin ena_snk_5000_0
*.iopin snk_5000_0
*.ipin ena_src_10000_1
*.iopin src_10000_1
*.ipin ena_snk_5000_1
*.iopin snk_5000_1
*.ipin ena_snk_5000_2
*.iopin snk_5000_2
*.ipin ena_src_600
*.iopin src_600
*.ipin ena_src_400
*.iopin src_400
*.ipin ena_src_200_0
*.iopin src_200_0
*.ipin ena_src_200_1
*.iopin src_200_1
*.ipin ena_src_200_2
*.iopin src_200_2
*.ipin ena_src_100
*.iopin src_100
*.ipin ena_src_50
*.iopin src_50
*.ipin ena_snk_3700
*.iopin snk_3700
*.ipin ena_snk_2000
*.iopin snk_2000
*.ipin vbg
*.ipin ena
*.iopin dvdd
*.iopin dvss
x2[19] net1 ena_3v3 nbias nbias avss bias_nstack
x2[18] net1 ena_3v3 nbias nbias avss bias_nstack
x2[17] net1 ena_3v3 nbias nbias avss bias_nstack
x2[16] net1 ena_3v3 nbias nbias avss bias_nstack
x2[15] net1 ena_3v3 nbias nbias avss bias_nstack
x2[14] net1 ena_3v3 nbias nbias avss bias_nstack
x2[13] net1 ena_3v3 nbias nbias avss bias_nstack
x2[12] net1 ena_3v3 nbias nbias avss bias_nstack
x2[11] net1 ena_3v3 nbias nbias avss bias_nstack
x2[10] net1 ena_3v3 nbias nbias avss bias_nstack
x2[9] net1 ena_3v3 nbias nbias avss bias_nstack
x2[8] net1 ena_3v3 nbias nbias avss bias_nstack
x2[7] net1 ena_3v3 nbias nbias avss bias_nstack
x2[6] net1 ena_3v3 nbias nbias avss bias_nstack
x2[5] net1 ena_3v3 nbias nbias avss bias_nstack
x2[4] net1 ena_3v3 nbias nbias avss bias_nstack
x2[3] net1 ena_3v3 nbias nbias avss bias_nstack
x2[2] net1 ena_3v3 nbias nbias avss bias_nstack
x2[1] net1 ena_3v3 nbias nbias avss bias_nstack
x2[0] net1 ena_3v3 nbias nbias avss bias_nstack
XR4 pcasc ref_in avss sky130_fd_pr__res_high_po_0p35 L=1500 mult=1 m=1
x4 pbias enb_vbg_3v3 net13 nbias avss bias_nstack
x2 avdd pbias pcasc net15 ena_vbg_3v3 avss pbias bias_pstack
x13[1] avdd pbias pcasc net16 enb_test0_3v3 avss src_test0 bias_pstack
x13[0] avdd pbias pcasc net16 enb_test0_3v3 avss src_test0 bias_pstack
x17[1] snk_test0 ena_test0_3v3 net17 nbias avss bias_nstack
x17[0] snk_test0 ena_test0_3v3 net17 nbias avss bias_nstack
x18[1] snk_test1 ena_test1_3v3 net18 nbias avss bias_nstack
x18[0] snk_test1 ena_test1_3v3 net18 nbias avss bias_nstack
x16[1] avdd pbias pcasc net19 enb_test1_3v3 avss src_test1 bias_pstack
x16[0] avdd pbias pcasc net19 enb_test1_3v3 avss src_test1 bias_pstack
x8[199] avdd pbias pcasc net20 enb_10000_0_3v3 avss src_10000_0 bias_pstack
x8[198] avdd pbias pcasc net20 enb_10000_0_3v3 avss src_10000_0 bias_pstack
x8[197] avdd pbias pcasc net20 enb_10000_0_3v3 avss src_10000_0 bias_pstack
x8[196] avdd pbias pcasc net20 enb_10000_0_3v3 avss src_10000_0 bias_pstack
x8[195] avdd pbias pcasc net20 enb_10000_0_3v3 avss src_10000_0 bias_pstack
x8[194] avdd pbias pcasc net20 enb_10000_0_3v3 avss src_10000_0 bias_pstack
x8[193] avdd pbias pcasc net20 enb_10000_0_3v3 avss src_10000_0 bias_pstack
x8[192] avdd pbias pcasc net20 enb_10000_0_3v3 avss src_10000_0 bias_pstack
x8[191] avdd pbias pcasc net20 enb_10000_0_3v3 avss src_10000_0 bias_pstack
x8[190] avdd pbias pcasc net20 enb_10000_0_3v3 avss src_10000_0 bias_pstack
x8[189] avdd pbias pcasc net20 enb_10000_0_3v3 avss src_10000_0 bias_pstack
x8[188] avdd pbias pcasc net20 enb_10000_0_3v3 avss src_10000_0 bias_pstack
x8[187] avdd pbias pcasc net20 enb_10000_0_3v3 avss src_10000_0 bias_pstack
x8[186] avdd pbias pcasc net20 enb_10000_0_3v3 avss src_10000_0 bias_pstack
x8[185] avdd pbias pcasc net20 enb_10000_0_3v3 avss src_10000_0 bias_pstack
x8[184] avdd pbias pcasc net20 enb_10000_0_3v3 avss src_10000_0 bias_pstack
x8[183] avdd pbias pcasc net20 enb_10000_0_3v3 avss src_10000_0 bias_pstack
x8[182] avdd pbias pcasc net20 enb_10000_0_3v3 avss src_10000_0 bias_pstack
x8[181] avdd pbias pcasc net20 enb_10000_0_3v3 avss src_10000_0 bias_pstack
x8[180] avdd pbias pcasc net20 enb_10000_0_3v3 avss src_10000_0 bias_pstack
x8[179] avdd pbias pcasc net20 enb_10000_0_3v3 avss src_10000_0 bias_pstack
x8[178] avdd pbias pcasc net20 enb_10000_0_3v3 avss src_10000_0 bias_pstack
x8[177] avdd pbias pcasc net20 enb_10000_0_3v3 avss src_10000_0 bias_pstack
x8[176] avdd pbias pcasc net20 enb_10000_0_3v3 avss src_10000_0 bias_pstack
x8[175] avdd pbias pcasc net20 enb_10000_0_3v3 avss src_10000_0 bias_pstack
x8[174] avdd pbias pcasc net20 enb_10000_0_3v3 avss src_10000_0 bias_pstack
x8[173] avdd pbias pcasc net20 enb_10000_0_3v3 avss src_10000_0 bias_pstack
x8[172] avdd pbias pcasc net20 enb_10000_0_3v3 avss src_10000_0 bias_pstack
x8[171] avdd pbias pcasc net20 enb_10000_0_3v3 avss src_10000_0 bias_pstack
x8[170] avdd pbias pcasc net20 enb_10000_0_3v3 avss src_10000_0 bias_pstack
x8[169] avdd pbias pcasc net20 enb_10000_0_3v3 avss src_10000_0 bias_pstack
x8[168] avdd pbias pcasc net20 enb_10000_0_3v3 avss src_10000_0 bias_pstack
x8[167] avdd pbias pcasc net20 enb_10000_0_3v3 avss src_10000_0 bias_pstack
x8[166] avdd pbias pcasc net20 enb_10000_0_3v3 avss src_10000_0 bias_pstack
x8[165] avdd pbias pcasc net20 enb_10000_0_3v3 avss src_10000_0 bias_pstack
x8[164] avdd pbias pcasc net20 enb_10000_0_3v3 avss src_10000_0 bias_pstack
x8[163] avdd pbias pcasc net20 enb_10000_0_3v3 avss src_10000_0 bias_pstack
x8[162] avdd pbias pcasc net20 enb_10000_0_3v3 avss src_10000_0 bias_pstack
x8[161] avdd pbias pcasc net20 enb_10000_0_3v3 avss src_10000_0 bias_pstack
x8[160] avdd pbias pcasc net20 enb_10000_0_3v3 avss src_10000_0 bias_pstack
x8[159] avdd pbias pcasc net20 enb_10000_0_3v3 avss src_10000_0 bias_pstack
x8[158] avdd pbias pcasc net20 enb_10000_0_3v3 avss src_10000_0 bias_pstack
x8[157] avdd pbias pcasc net20 enb_10000_0_3v3 avss src_10000_0 bias_pstack
x8[156] avdd pbias pcasc net20 enb_10000_0_3v3 avss src_10000_0 bias_pstack
x8[155] avdd pbias pcasc net20 enb_10000_0_3v3 avss src_10000_0 bias_pstack
x8[154] avdd pbias pcasc net20 enb_10000_0_3v3 avss src_10000_0 bias_pstack
x8[153] avdd pbias pcasc net20 enb_10000_0_3v3 avss src_10000_0 bias_pstack
x8[152] avdd pbias pcasc net20 enb_10000_0_3v3 avss src_10000_0 bias_pstack
x8[151] avdd pbias pcasc net20 enb_10000_0_3v3 avss src_10000_0 bias_pstack
x8[150] avdd pbias pcasc net20 enb_10000_0_3v3 avss src_10000_0 bias_pstack
x8[149] avdd pbias pcasc net20 enb_10000_0_3v3 avss src_10000_0 bias_pstack
x8[148] avdd pbias pcasc net20 enb_10000_0_3v3 avss src_10000_0 bias_pstack
x8[147] avdd pbias pcasc net20 enb_10000_0_3v3 avss src_10000_0 bias_pstack
x8[146] avdd pbias pcasc net20 enb_10000_0_3v3 avss src_10000_0 bias_pstack
x8[145] avdd pbias pcasc net20 enb_10000_0_3v3 avss src_10000_0 bias_pstack
x8[144] avdd pbias pcasc net20 enb_10000_0_3v3 avss src_10000_0 bias_pstack
x8[143] avdd pbias pcasc net20 enb_10000_0_3v3 avss src_10000_0 bias_pstack
x8[142] avdd pbias pcasc net20 enb_10000_0_3v3 avss src_10000_0 bias_pstack
x8[141] avdd pbias pcasc net20 enb_10000_0_3v3 avss src_10000_0 bias_pstack
x8[140] avdd pbias pcasc net20 enb_10000_0_3v3 avss src_10000_0 bias_pstack
x8[139] avdd pbias pcasc net20 enb_10000_0_3v3 avss src_10000_0 bias_pstack
x8[138] avdd pbias pcasc net20 enb_10000_0_3v3 avss src_10000_0 bias_pstack
x8[137] avdd pbias pcasc net20 enb_10000_0_3v3 avss src_10000_0 bias_pstack
x8[136] avdd pbias pcasc net20 enb_10000_0_3v3 avss src_10000_0 bias_pstack
x8[135] avdd pbias pcasc net20 enb_10000_0_3v3 avss src_10000_0 bias_pstack
x8[134] avdd pbias pcasc net20 enb_10000_0_3v3 avss src_10000_0 bias_pstack
x8[133] avdd pbias pcasc net20 enb_10000_0_3v3 avss src_10000_0 bias_pstack
x8[132] avdd pbias pcasc net20 enb_10000_0_3v3 avss src_10000_0 bias_pstack
x8[131] avdd pbias pcasc net20 enb_10000_0_3v3 avss src_10000_0 bias_pstack
x8[130] avdd pbias pcasc net20 enb_10000_0_3v3 avss src_10000_0 bias_pstack
x8[129] avdd pbias pcasc net20 enb_10000_0_3v3 avss src_10000_0 bias_pstack
x8[128] avdd pbias pcasc net20 enb_10000_0_3v3 avss src_10000_0 bias_pstack
x8[127] avdd pbias pcasc net20 enb_10000_0_3v3 avss src_10000_0 bias_pstack
x8[126] avdd pbias pcasc net20 enb_10000_0_3v3 avss src_10000_0 bias_pstack
x8[125] avdd pbias pcasc net20 enb_10000_0_3v3 avss src_10000_0 bias_pstack
x8[124] avdd pbias pcasc net20 enb_10000_0_3v3 avss src_10000_0 bias_pstack
x8[123] avdd pbias pcasc net20 enb_10000_0_3v3 avss src_10000_0 bias_pstack
x8[122] avdd pbias pcasc net20 enb_10000_0_3v3 avss src_10000_0 bias_pstack
x8[121] avdd pbias pcasc net20 enb_10000_0_3v3 avss src_10000_0 bias_pstack
x8[120] avdd pbias pcasc net20 enb_10000_0_3v3 avss src_10000_0 bias_pstack
x8[119] avdd pbias pcasc net20 enb_10000_0_3v3 avss src_10000_0 bias_pstack
x8[118] avdd pbias pcasc net20 enb_10000_0_3v3 avss src_10000_0 bias_pstack
x8[117] avdd pbias pcasc net20 enb_10000_0_3v3 avss src_10000_0 bias_pstack
x8[116] avdd pbias pcasc net20 enb_10000_0_3v3 avss src_10000_0 bias_pstack
x8[115] avdd pbias pcasc net20 enb_10000_0_3v3 avss src_10000_0 bias_pstack
x8[114] avdd pbias pcasc net20 enb_10000_0_3v3 avss src_10000_0 bias_pstack
x8[113] avdd pbias pcasc net20 enb_10000_0_3v3 avss src_10000_0 bias_pstack
x8[112] avdd pbias pcasc net20 enb_10000_0_3v3 avss src_10000_0 bias_pstack
x8[111] avdd pbias pcasc net20 enb_10000_0_3v3 avss src_10000_0 bias_pstack
x8[110] avdd pbias pcasc net20 enb_10000_0_3v3 avss src_10000_0 bias_pstack
x8[109] avdd pbias pcasc net20 enb_10000_0_3v3 avss src_10000_0 bias_pstack
x8[108] avdd pbias pcasc net20 enb_10000_0_3v3 avss src_10000_0 bias_pstack
x8[107] avdd pbias pcasc net20 enb_10000_0_3v3 avss src_10000_0 bias_pstack
x8[106] avdd pbias pcasc net20 enb_10000_0_3v3 avss src_10000_0 bias_pstack
x8[105] avdd pbias pcasc net20 enb_10000_0_3v3 avss src_10000_0 bias_pstack
x8[104] avdd pbias pcasc net20 enb_10000_0_3v3 avss src_10000_0 bias_pstack
x8[103] avdd pbias pcasc net20 enb_10000_0_3v3 avss src_10000_0 bias_pstack
x8[102] avdd pbias pcasc net20 enb_10000_0_3v3 avss src_10000_0 bias_pstack
x8[101] avdd pbias pcasc net20 enb_10000_0_3v3 avss src_10000_0 bias_pstack
x8[100] avdd pbias pcasc net20 enb_10000_0_3v3 avss src_10000_0 bias_pstack
x8[99] avdd pbias pcasc net20 enb_10000_0_3v3 avss src_10000_0 bias_pstack
x8[98] avdd pbias pcasc net20 enb_10000_0_3v3 avss src_10000_0 bias_pstack
x8[97] avdd pbias pcasc net20 enb_10000_0_3v3 avss src_10000_0 bias_pstack
x8[96] avdd pbias pcasc net20 enb_10000_0_3v3 avss src_10000_0 bias_pstack
x8[95] avdd pbias pcasc net20 enb_10000_0_3v3 avss src_10000_0 bias_pstack
x8[94] avdd pbias pcasc net20 enb_10000_0_3v3 avss src_10000_0 bias_pstack
x8[93] avdd pbias pcasc net20 enb_10000_0_3v3 avss src_10000_0 bias_pstack
x8[92] avdd pbias pcasc net20 enb_10000_0_3v3 avss src_10000_0 bias_pstack
x8[91] avdd pbias pcasc net20 enb_10000_0_3v3 avss src_10000_0 bias_pstack
x8[90] avdd pbias pcasc net20 enb_10000_0_3v3 avss src_10000_0 bias_pstack
x8[89] avdd pbias pcasc net20 enb_10000_0_3v3 avss src_10000_0 bias_pstack
x8[88] avdd pbias pcasc net20 enb_10000_0_3v3 avss src_10000_0 bias_pstack
x8[87] avdd pbias pcasc net20 enb_10000_0_3v3 avss src_10000_0 bias_pstack
x8[86] avdd pbias pcasc net20 enb_10000_0_3v3 avss src_10000_0 bias_pstack
x8[85] avdd pbias pcasc net20 enb_10000_0_3v3 avss src_10000_0 bias_pstack
x8[84] avdd pbias pcasc net20 enb_10000_0_3v3 avss src_10000_0 bias_pstack
x8[83] avdd pbias pcasc net20 enb_10000_0_3v3 avss src_10000_0 bias_pstack
x8[82] avdd pbias pcasc net20 enb_10000_0_3v3 avss src_10000_0 bias_pstack
x8[81] avdd pbias pcasc net20 enb_10000_0_3v3 avss src_10000_0 bias_pstack
x8[80] avdd pbias pcasc net20 enb_10000_0_3v3 avss src_10000_0 bias_pstack
x8[79] avdd pbias pcasc net20 enb_10000_0_3v3 avss src_10000_0 bias_pstack
x8[78] avdd pbias pcasc net20 enb_10000_0_3v3 avss src_10000_0 bias_pstack
x8[77] avdd pbias pcasc net20 enb_10000_0_3v3 avss src_10000_0 bias_pstack
x8[76] avdd pbias pcasc net20 enb_10000_0_3v3 avss src_10000_0 bias_pstack
x8[75] avdd pbias pcasc net20 enb_10000_0_3v3 avss src_10000_0 bias_pstack
x8[74] avdd pbias pcasc net20 enb_10000_0_3v3 avss src_10000_0 bias_pstack
x8[73] avdd pbias pcasc net20 enb_10000_0_3v3 avss src_10000_0 bias_pstack
x8[72] avdd pbias pcasc net20 enb_10000_0_3v3 avss src_10000_0 bias_pstack
x8[71] avdd pbias pcasc net20 enb_10000_0_3v3 avss src_10000_0 bias_pstack
x8[70] avdd pbias pcasc net20 enb_10000_0_3v3 avss src_10000_0 bias_pstack
x8[69] avdd pbias pcasc net20 enb_10000_0_3v3 avss src_10000_0 bias_pstack
x8[68] avdd pbias pcasc net20 enb_10000_0_3v3 avss src_10000_0 bias_pstack
x8[67] avdd pbias pcasc net20 enb_10000_0_3v3 avss src_10000_0 bias_pstack
x8[66] avdd pbias pcasc net20 enb_10000_0_3v3 avss src_10000_0 bias_pstack
x8[65] avdd pbias pcasc net20 enb_10000_0_3v3 avss src_10000_0 bias_pstack
x8[64] avdd pbias pcasc net20 enb_10000_0_3v3 avss src_10000_0 bias_pstack
x8[63] avdd pbias pcasc net20 enb_10000_0_3v3 avss src_10000_0 bias_pstack
x8[62] avdd pbias pcasc net20 enb_10000_0_3v3 avss src_10000_0 bias_pstack
x8[61] avdd pbias pcasc net20 enb_10000_0_3v3 avss src_10000_0 bias_pstack
x8[60] avdd pbias pcasc net20 enb_10000_0_3v3 avss src_10000_0 bias_pstack
x8[59] avdd pbias pcasc net20 enb_10000_0_3v3 avss src_10000_0 bias_pstack
x8[58] avdd pbias pcasc net20 enb_10000_0_3v3 avss src_10000_0 bias_pstack
x8[57] avdd pbias pcasc net20 enb_10000_0_3v3 avss src_10000_0 bias_pstack
x8[56] avdd pbias pcasc net20 enb_10000_0_3v3 avss src_10000_0 bias_pstack
x8[55] avdd pbias pcasc net20 enb_10000_0_3v3 avss src_10000_0 bias_pstack
x8[54] avdd pbias pcasc net20 enb_10000_0_3v3 avss src_10000_0 bias_pstack
x8[53] avdd pbias pcasc net20 enb_10000_0_3v3 avss src_10000_0 bias_pstack
x8[52] avdd pbias pcasc net20 enb_10000_0_3v3 avss src_10000_0 bias_pstack
x8[51] avdd pbias pcasc net20 enb_10000_0_3v3 avss src_10000_0 bias_pstack
x8[50] avdd pbias pcasc net20 enb_10000_0_3v3 avss src_10000_0 bias_pstack
x8[49] avdd pbias pcasc net20 enb_10000_0_3v3 avss src_10000_0 bias_pstack
x8[48] avdd pbias pcasc net20 enb_10000_0_3v3 avss src_10000_0 bias_pstack
x8[47] avdd pbias pcasc net20 enb_10000_0_3v3 avss src_10000_0 bias_pstack
x8[46] avdd pbias pcasc net20 enb_10000_0_3v3 avss src_10000_0 bias_pstack
x8[45] avdd pbias pcasc net20 enb_10000_0_3v3 avss src_10000_0 bias_pstack
x8[44] avdd pbias pcasc net20 enb_10000_0_3v3 avss src_10000_0 bias_pstack
x8[43] avdd pbias pcasc net20 enb_10000_0_3v3 avss src_10000_0 bias_pstack
x8[42] avdd pbias pcasc net20 enb_10000_0_3v3 avss src_10000_0 bias_pstack
x8[41] avdd pbias pcasc net20 enb_10000_0_3v3 avss src_10000_0 bias_pstack
x8[40] avdd pbias pcasc net20 enb_10000_0_3v3 avss src_10000_0 bias_pstack
x8[39] avdd pbias pcasc net20 enb_10000_0_3v3 avss src_10000_0 bias_pstack
x8[38] avdd pbias pcasc net20 enb_10000_0_3v3 avss src_10000_0 bias_pstack
x8[37] avdd pbias pcasc net20 enb_10000_0_3v3 avss src_10000_0 bias_pstack
x8[36] avdd pbias pcasc net20 enb_10000_0_3v3 avss src_10000_0 bias_pstack
x8[35] avdd pbias pcasc net20 enb_10000_0_3v3 avss src_10000_0 bias_pstack
x8[34] avdd pbias pcasc net20 enb_10000_0_3v3 avss src_10000_0 bias_pstack
x8[33] avdd pbias pcasc net20 enb_10000_0_3v3 avss src_10000_0 bias_pstack
x8[32] avdd pbias pcasc net20 enb_10000_0_3v3 avss src_10000_0 bias_pstack
x8[31] avdd pbias pcasc net20 enb_10000_0_3v3 avss src_10000_0 bias_pstack
x8[30] avdd pbias pcasc net20 enb_10000_0_3v3 avss src_10000_0 bias_pstack
x8[29] avdd pbias pcasc net20 enb_10000_0_3v3 avss src_10000_0 bias_pstack
x8[28] avdd pbias pcasc net20 enb_10000_0_3v3 avss src_10000_0 bias_pstack
x8[27] avdd pbias pcasc net20 enb_10000_0_3v3 avss src_10000_0 bias_pstack
x8[26] avdd pbias pcasc net20 enb_10000_0_3v3 avss src_10000_0 bias_pstack
x8[25] avdd pbias pcasc net20 enb_10000_0_3v3 avss src_10000_0 bias_pstack
x8[24] avdd pbias pcasc net20 enb_10000_0_3v3 avss src_10000_0 bias_pstack
x8[23] avdd pbias pcasc net20 enb_10000_0_3v3 avss src_10000_0 bias_pstack
x8[22] avdd pbias pcasc net20 enb_10000_0_3v3 avss src_10000_0 bias_pstack
x8[21] avdd pbias pcasc net20 enb_10000_0_3v3 avss src_10000_0 bias_pstack
x8[20] avdd pbias pcasc net20 enb_10000_0_3v3 avss src_10000_0 bias_pstack
x8[19] avdd pbias pcasc net20 enb_10000_0_3v3 avss src_10000_0 bias_pstack
x8[18] avdd pbias pcasc net20 enb_10000_0_3v3 avss src_10000_0 bias_pstack
x8[17] avdd pbias pcasc net20 enb_10000_0_3v3 avss src_10000_0 bias_pstack
x8[16] avdd pbias pcasc net20 enb_10000_0_3v3 avss src_10000_0 bias_pstack
x8[15] avdd pbias pcasc net20 enb_10000_0_3v3 avss src_10000_0 bias_pstack
x8[14] avdd pbias pcasc net20 enb_10000_0_3v3 avss src_10000_0 bias_pstack
x8[13] avdd pbias pcasc net20 enb_10000_0_3v3 avss src_10000_0 bias_pstack
x8[12] avdd pbias pcasc net20 enb_10000_0_3v3 avss src_10000_0 bias_pstack
x8[11] avdd pbias pcasc net20 enb_10000_0_3v3 avss src_10000_0 bias_pstack
x8[10] avdd pbias pcasc net20 enb_10000_0_3v3 avss src_10000_0 bias_pstack
x8[9] avdd pbias pcasc net20 enb_10000_0_3v3 avss src_10000_0 bias_pstack
x8[8] avdd pbias pcasc net20 enb_10000_0_3v3 avss src_10000_0 bias_pstack
x8[7] avdd pbias pcasc net20 enb_10000_0_3v3 avss src_10000_0 bias_pstack
x8[6] avdd pbias pcasc net20 enb_10000_0_3v3 avss src_10000_0 bias_pstack
x8[5] avdd pbias pcasc net20 enb_10000_0_3v3 avss src_10000_0 bias_pstack
x8[4] avdd pbias pcasc net20 enb_10000_0_3v3 avss src_10000_0 bias_pstack
x8[3] avdd pbias pcasc net20 enb_10000_0_3v3 avss src_10000_0 bias_pstack
x8[2] avdd pbias pcasc net20 enb_10000_0_3v3 avss src_10000_0 bias_pstack
x8[1] avdd pbias pcasc net20 enb_10000_0_3v3 avss src_10000_0 bias_pstack
x8[0] avdd pbias pcasc net20 enb_10000_0_3v3 avss src_10000_0 bias_pstack
x9[99] snk_5000_0 ena_5000_0_3v3 net21 nbias avss bias_nstack
x9[98] snk_5000_0 ena_5000_0_3v3 net21 nbias avss bias_nstack
x9[97] snk_5000_0 ena_5000_0_3v3 net21 nbias avss bias_nstack
x9[96] snk_5000_0 ena_5000_0_3v3 net21 nbias avss bias_nstack
x9[95] snk_5000_0 ena_5000_0_3v3 net21 nbias avss bias_nstack
x9[94] snk_5000_0 ena_5000_0_3v3 net21 nbias avss bias_nstack
x9[93] snk_5000_0 ena_5000_0_3v3 net21 nbias avss bias_nstack
x9[92] snk_5000_0 ena_5000_0_3v3 net21 nbias avss bias_nstack
x9[91] snk_5000_0 ena_5000_0_3v3 net21 nbias avss bias_nstack
x9[90] snk_5000_0 ena_5000_0_3v3 net21 nbias avss bias_nstack
x9[89] snk_5000_0 ena_5000_0_3v3 net21 nbias avss bias_nstack
x9[88] snk_5000_0 ena_5000_0_3v3 net21 nbias avss bias_nstack
x9[87] snk_5000_0 ena_5000_0_3v3 net21 nbias avss bias_nstack
x9[86] snk_5000_0 ena_5000_0_3v3 net21 nbias avss bias_nstack
x9[85] snk_5000_0 ena_5000_0_3v3 net21 nbias avss bias_nstack
x9[84] snk_5000_0 ena_5000_0_3v3 net21 nbias avss bias_nstack
x9[83] snk_5000_0 ena_5000_0_3v3 net21 nbias avss bias_nstack
x9[82] snk_5000_0 ena_5000_0_3v3 net21 nbias avss bias_nstack
x9[81] snk_5000_0 ena_5000_0_3v3 net21 nbias avss bias_nstack
x9[80] snk_5000_0 ena_5000_0_3v3 net21 nbias avss bias_nstack
x9[79] snk_5000_0 ena_5000_0_3v3 net21 nbias avss bias_nstack
x9[78] snk_5000_0 ena_5000_0_3v3 net21 nbias avss bias_nstack
x9[77] snk_5000_0 ena_5000_0_3v3 net21 nbias avss bias_nstack
x9[76] snk_5000_0 ena_5000_0_3v3 net21 nbias avss bias_nstack
x9[75] snk_5000_0 ena_5000_0_3v3 net21 nbias avss bias_nstack
x9[74] snk_5000_0 ena_5000_0_3v3 net21 nbias avss bias_nstack
x9[73] snk_5000_0 ena_5000_0_3v3 net21 nbias avss bias_nstack
x9[72] snk_5000_0 ena_5000_0_3v3 net21 nbias avss bias_nstack
x9[71] snk_5000_0 ena_5000_0_3v3 net21 nbias avss bias_nstack
x9[70] snk_5000_0 ena_5000_0_3v3 net21 nbias avss bias_nstack
x9[69] snk_5000_0 ena_5000_0_3v3 net21 nbias avss bias_nstack
x9[68] snk_5000_0 ena_5000_0_3v3 net21 nbias avss bias_nstack
x9[67] snk_5000_0 ena_5000_0_3v3 net21 nbias avss bias_nstack
x9[66] snk_5000_0 ena_5000_0_3v3 net21 nbias avss bias_nstack
x9[65] snk_5000_0 ena_5000_0_3v3 net21 nbias avss bias_nstack
x9[64] snk_5000_0 ena_5000_0_3v3 net21 nbias avss bias_nstack
x9[63] snk_5000_0 ena_5000_0_3v3 net21 nbias avss bias_nstack
x9[62] snk_5000_0 ena_5000_0_3v3 net21 nbias avss bias_nstack
x9[61] snk_5000_0 ena_5000_0_3v3 net21 nbias avss bias_nstack
x9[60] snk_5000_0 ena_5000_0_3v3 net21 nbias avss bias_nstack
x9[59] snk_5000_0 ena_5000_0_3v3 net21 nbias avss bias_nstack
x9[58] snk_5000_0 ena_5000_0_3v3 net21 nbias avss bias_nstack
x9[57] snk_5000_0 ena_5000_0_3v3 net21 nbias avss bias_nstack
x9[56] snk_5000_0 ena_5000_0_3v3 net21 nbias avss bias_nstack
x9[55] snk_5000_0 ena_5000_0_3v3 net21 nbias avss bias_nstack
x9[54] snk_5000_0 ena_5000_0_3v3 net21 nbias avss bias_nstack
x9[53] snk_5000_0 ena_5000_0_3v3 net21 nbias avss bias_nstack
x9[52] snk_5000_0 ena_5000_0_3v3 net21 nbias avss bias_nstack
x9[51] snk_5000_0 ena_5000_0_3v3 net21 nbias avss bias_nstack
x9[50] snk_5000_0 ena_5000_0_3v3 net21 nbias avss bias_nstack
x9[49] snk_5000_0 ena_5000_0_3v3 net21 nbias avss bias_nstack
x9[48] snk_5000_0 ena_5000_0_3v3 net21 nbias avss bias_nstack
x9[47] snk_5000_0 ena_5000_0_3v3 net21 nbias avss bias_nstack
x9[46] snk_5000_0 ena_5000_0_3v3 net21 nbias avss bias_nstack
x9[45] snk_5000_0 ena_5000_0_3v3 net21 nbias avss bias_nstack
x9[44] snk_5000_0 ena_5000_0_3v3 net21 nbias avss bias_nstack
x9[43] snk_5000_0 ena_5000_0_3v3 net21 nbias avss bias_nstack
x9[42] snk_5000_0 ena_5000_0_3v3 net21 nbias avss bias_nstack
x9[41] snk_5000_0 ena_5000_0_3v3 net21 nbias avss bias_nstack
x9[40] snk_5000_0 ena_5000_0_3v3 net21 nbias avss bias_nstack
x9[39] snk_5000_0 ena_5000_0_3v3 net21 nbias avss bias_nstack
x9[38] snk_5000_0 ena_5000_0_3v3 net21 nbias avss bias_nstack
x9[37] snk_5000_0 ena_5000_0_3v3 net21 nbias avss bias_nstack
x9[36] snk_5000_0 ena_5000_0_3v3 net21 nbias avss bias_nstack
x9[35] snk_5000_0 ena_5000_0_3v3 net21 nbias avss bias_nstack
x9[34] snk_5000_0 ena_5000_0_3v3 net21 nbias avss bias_nstack
x9[33] snk_5000_0 ena_5000_0_3v3 net21 nbias avss bias_nstack
x9[32] snk_5000_0 ena_5000_0_3v3 net21 nbias avss bias_nstack
x9[31] snk_5000_0 ena_5000_0_3v3 net21 nbias avss bias_nstack
x9[30] snk_5000_0 ena_5000_0_3v3 net21 nbias avss bias_nstack
x9[29] snk_5000_0 ena_5000_0_3v3 net21 nbias avss bias_nstack
x9[28] snk_5000_0 ena_5000_0_3v3 net21 nbias avss bias_nstack
x9[27] snk_5000_0 ena_5000_0_3v3 net21 nbias avss bias_nstack
x9[26] snk_5000_0 ena_5000_0_3v3 net21 nbias avss bias_nstack
x9[25] snk_5000_0 ena_5000_0_3v3 net21 nbias avss bias_nstack
x9[24] snk_5000_0 ena_5000_0_3v3 net21 nbias avss bias_nstack
x9[23] snk_5000_0 ena_5000_0_3v3 net21 nbias avss bias_nstack
x9[22] snk_5000_0 ena_5000_0_3v3 net21 nbias avss bias_nstack
x9[21] snk_5000_0 ena_5000_0_3v3 net21 nbias avss bias_nstack
x9[20] snk_5000_0 ena_5000_0_3v3 net21 nbias avss bias_nstack
x9[19] snk_5000_0 ena_5000_0_3v3 net21 nbias avss bias_nstack
x9[18] snk_5000_0 ena_5000_0_3v3 net21 nbias avss bias_nstack
x9[17] snk_5000_0 ena_5000_0_3v3 net21 nbias avss bias_nstack
x9[16] snk_5000_0 ena_5000_0_3v3 net21 nbias avss bias_nstack
x9[15] snk_5000_0 ena_5000_0_3v3 net21 nbias avss bias_nstack
x9[14] snk_5000_0 ena_5000_0_3v3 net21 nbias avss bias_nstack
x9[13] snk_5000_0 ena_5000_0_3v3 net21 nbias avss bias_nstack
x9[12] snk_5000_0 ena_5000_0_3v3 net21 nbias avss bias_nstack
x9[11] snk_5000_0 ena_5000_0_3v3 net21 nbias avss bias_nstack
x9[10] snk_5000_0 ena_5000_0_3v3 net21 nbias avss bias_nstack
x9[9] snk_5000_0 ena_5000_0_3v3 net21 nbias avss bias_nstack
x9[8] snk_5000_0 ena_5000_0_3v3 net21 nbias avss bias_nstack
x9[7] snk_5000_0 ena_5000_0_3v3 net21 nbias avss bias_nstack
x9[6] snk_5000_0 ena_5000_0_3v3 net21 nbias avss bias_nstack
x9[5] snk_5000_0 ena_5000_0_3v3 net21 nbias avss bias_nstack
x9[4] snk_5000_0 ena_5000_0_3v3 net21 nbias avss bias_nstack
x9[3] snk_5000_0 ena_5000_0_3v3 net21 nbias avss bias_nstack
x9[2] snk_5000_0 ena_5000_0_3v3 net21 nbias avss bias_nstack
x9[1] snk_5000_0 ena_5000_0_3v3 net21 nbias avss bias_nstack
x9[0] snk_5000_0 ena_5000_0_3v3 net21 nbias avss bias_nstack
x10[199] avdd pbias pcasc net22 enb_10000_1_3v3 avss src_10000_1 bias_pstack
x10[198] avdd pbias pcasc net22 enb_10000_1_3v3 avss src_10000_1 bias_pstack
x10[197] avdd pbias pcasc net22 enb_10000_1_3v3 avss src_10000_1 bias_pstack
x10[196] avdd pbias pcasc net22 enb_10000_1_3v3 avss src_10000_1 bias_pstack
x10[195] avdd pbias pcasc net22 enb_10000_1_3v3 avss src_10000_1 bias_pstack
x10[194] avdd pbias pcasc net22 enb_10000_1_3v3 avss src_10000_1 bias_pstack
x10[193] avdd pbias pcasc net22 enb_10000_1_3v3 avss src_10000_1 bias_pstack
x10[192] avdd pbias pcasc net22 enb_10000_1_3v3 avss src_10000_1 bias_pstack
x10[191] avdd pbias pcasc net22 enb_10000_1_3v3 avss src_10000_1 bias_pstack
x10[190] avdd pbias pcasc net22 enb_10000_1_3v3 avss src_10000_1 bias_pstack
x10[189] avdd pbias pcasc net22 enb_10000_1_3v3 avss src_10000_1 bias_pstack
x10[188] avdd pbias pcasc net22 enb_10000_1_3v3 avss src_10000_1 bias_pstack
x10[187] avdd pbias pcasc net22 enb_10000_1_3v3 avss src_10000_1 bias_pstack
x10[186] avdd pbias pcasc net22 enb_10000_1_3v3 avss src_10000_1 bias_pstack
x10[185] avdd pbias pcasc net22 enb_10000_1_3v3 avss src_10000_1 bias_pstack
x10[184] avdd pbias pcasc net22 enb_10000_1_3v3 avss src_10000_1 bias_pstack
x10[183] avdd pbias pcasc net22 enb_10000_1_3v3 avss src_10000_1 bias_pstack
x10[182] avdd pbias pcasc net22 enb_10000_1_3v3 avss src_10000_1 bias_pstack
x10[181] avdd pbias pcasc net22 enb_10000_1_3v3 avss src_10000_1 bias_pstack
x10[180] avdd pbias pcasc net22 enb_10000_1_3v3 avss src_10000_1 bias_pstack
x10[179] avdd pbias pcasc net22 enb_10000_1_3v3 avss src_10000_1 bias_pstack
x10[178] avdd pbias pcasc net22 enb_10000_1_3v3 avss src_10000_1 bias_pstack
x10[177] avdd pbias pcasc net22 enb_10000_1_3v3 avss src_10000_1 bias_pstack
x10[176] avdd pbias pcasc net22 enb_10000_1_3v3 avss src_10000_1 bias_pstack
x10[175] avdd pbias pcasc net22 enb_10000_1_3v3 avss src_10000_1 bias_pstack
x10[174] avdd pbias pcasc net22 enb_10000_1_3v3 avss src_10000_1 bias_pstack
x10[173] avdd pbias pcasc net22 enb_10000_1_3v3 avss src_10000_1 bias_pstack
x10[172] avdd pbias pcasc net22 enb_10000_1_3v3 avss src_10000_1 bias_pstack
x10[171] avdd pbias pcasc net22 enb_10000_1_3v3 avss src_10000_1 bias_pstack
x10[170] avdd pbias pcasc net22 enb_10000_1_3v3 avss src_10000_1 bias_pstack
x10[169] avdd pbias pcasc net22 enb_10000_1_3v3 avss src_10000_1 bias_pstack
x10[168] avdd pbias pcasc net22 enb_10000_1_3v3 avss src_10000_1 bias_pstack
x10[167] avdd pbias pcasc net22 enb_10000_1_3v3 avss src_10000_1 bias_pstack
x10[166] avdd pbias pcasc net22 enb_10000_1_3v3 avss src_10000_1 bias_pstack
x10[165] avdd pbias pcasc net22 enb_10000_1_3v3 avss src_10000_1 bias_pstack
x10[164] avdd pbias pcasc net22 enb_10000_1_3v3 avss src_10000_1 bias_pstack
x10[163] avdd pbias pcasc net22 enb_10000_1_3v3 avss src_10000_1 bias_pstack
x10[162] avdd pbias pcasc net22 enb_10000_1_3v3 avss src_10000_1 bias_pstack
x10[161] avdd pbias pcasc net22 enb_10000_1_3v3 avss src_10000_1 bias_pstack
x10[160] avdd pbias pcasc net22 enb_10000_1_3v3 avss src_10000_1 bias_pstack
x10[159] avdd pbias pcasc net22 enb_10000_1_3v3 avss src_10000_1 bias_pstack
x10[158] avdd pbias pcasc net22 enb_10000_1_3v3 avss src_10000_1 bias_pstack
x10[157] avdd pbias pcasc net22 enb_10000_1_3v3 avss src_10000_1 bias_pstack
x10[156] avdd pbias pcasc net22 enb_10000_1_3v3 avss src_10000_1 bias_pstack
x10[155] avdd pbias pcasc net22 enb_10000_1_3v3 avss src_10000_1 bias_pstack
x10[154] avdd pbias pcasc net22 enb_10000_1_3v3 avss src_10000_1 bias_pstack
x10[153] avdd pbias pcasc net22 enb_10000_1_3v3 avss src_10000_1 bias_pstack
x10[152] avdd pbias pcasc net22 enb_10000_1_3v3 avss src_10000_1 bias_pstack
x10[151] avdd pbias pcasc net22 enb_10000_1_3v3 avss src_10000_1 bias_pstack
x10[150] avdd pbias pcasc net22 enb_10000_1_3v3 avss src_10000_1 bias_pstack
x10[149] avdd pbias pcasc net22 enb_10000_1_3v3 avss src_10000_1 bias_pstack
x10[148] avdd pbias pcasc net22 enb_10000_1_3v3 avss src_10000_1 bias_pstack
x10[147] avdd pbias pcasc net22 enb_10000_1_3v3 avss src_10000_1 bias_pstack
x10[146] avdd pbias pcasc net22 enb_10000_1_3v3 avss src_10000_1 bias_pstack
x10[145] avdd pbias pcasc net22 enb_10000_1_3v3 avss src_10000_1 bias_pstack
x10[144] avdd pbias pcasc net22 enb_10000_1_3v3 avss src_10000_1 bias_pstack